
#(C) 2019 by FIZ Karlsruhe - Leibniz Institute for Information Infrastructure.  All rights reserved.
data_131-ICSD
_database_code_ICSD 131
_audit_creation_date 1980-01-01
_audit_update_record 1985-03-21
_chemical_name_systematic 'Dicalcium dihydroxotridecaoxooctaborate'
_chemical_formula_structural 'Ca2 (B8 O13 (O H)2)'
_chemical_formula_sum 'H2 B8 Ca2 O15'
_exptl_crystal_density_diffrn 2.57
_publ_section_title

;
Utochnennaya kristallicheskaya struktura karkasnogo Ca-borata Ca2 (B8 O13 (O
H)2)
;
loop_
_citation_id
_citation_journal_full
_citation_year
_citation_journal_volume
_citation_page_first
_citation_page_last
_citation_journal_id_ASTM
primary 'Zhurnal Strukturnoi Khimii' 1976 17 489 495 ZSTKAI
loop_
_publ_author_name
'Yamnova, N.A.'
'Simonov, M.A.'
'Belov, N.'
_cell_length_a 6.441(2)
_cell_length_b 9.354(3)
_cell_length_c 10.011(3)
_cell_angle_alpha 63.15(2)
_cell_angle_beta 89.45(2)
_cell_angle_gamma 99.28(2)
_cell_volume 528.75
_cell_formula_units_Z 2
_symmetry_space_group_name_H-M 'P -1'
_symmetry_Int_Tables_number 2
_refine_ls_R_factor_all 0.03
loop_
_symmetry_equiv_pos_site_id
_symmetry_equiv_pos_as_xyz
1 '-x, -y, -z'
2 'x, y, z'
loop_
_atom_type_symbol
_atom_type_oxidation_number
Ca2+ 2
B3+ 3
H1+ 1
O2- -2
loop_
_atom_site_label
_atom_site_type_symbol
_atom_site_symmetry_multiplicity
_atom_site_Wyckoff_symbol
_atom_site_fract_x
_atom_site_fract_y
_atom_site_fract_z
_atom_site_B_iso_or_equiv
_atom_site_occupancy
_atom_site_attached_hydrogens
Ca1 Ca2+ 2 i 0.01371(6) 0.17624(4) 0.27835(4) . 1. 0
Ca2 Ca2+ 2 i 0.32658(6) 0.18403(4) 0.83077(4) . 1. 0
B1 B3+ 2 i 0.2456(3) 0.9393(2) 0.2204(2) . 1. 0
B2 B3+ 2 i 0.2654(3) 0.5320(2) 0.1553(2) . 1. 0
B3 B3+ 2 i 0.0813(3) 0.4038(2) 0.8754(2) . 1. 0
B4 B3+ 2 i 0.4426(3) 0.8428(2) 0.8103(2) . 1. 0
B5 B3+ 2 i 0.2872(3) 0.7374(2) 0.4791(2) . 1. 0
B6 B3+ 2 i 0.4205(3) 0.6085(2) 0.7404(2) . 1. 0
B7 B3+ 2 i 0.2280(3) 0.8277(2) 0.0257(2) . 1. 0
B8 B3+ 2 i 0.0685(3) 0.1939(2) 0.5780(2) . 1. 0
H1 H1+ 2 i 0.292(4) 0.136(3) 0.501(3) 1.96 1. 0
H2 H1+ 2 i 0.308(5) 0.371(4) 0.515(3) 3.97 1. 0
O1 O2- 2 i 0.3623(2) 0.4027(1) 0.2187(1) . 1. 0
O2 O2- 2 i 0.0249(2) 0.9157(2) 0.2697(1) . 1. 0
O3 O2- 2 i 0.1758(2) 0.0970(2) 0.5211(2) . 1. 0
O4 O2- 2 i 0.9987(2) 0.7595(2) 0.0475(2) . 1. 0
O5 O2- 2 i 0.3011(2) 0.9096(1) 0.8622(1) . 1. 0
O6 O2- 2 i 0.3400(2) 0.7240(2) 0.7786(2) . 1. 0
O7 O2- 2 i 0.2875(2) 0.4461(1) 0.8254(2) . 1. 0
O8 O2- 2 i 0.2779(2) 0.9524(1) 0.0717(1) . 1. 0
O9 O2- 2 i 0.3504(2) 0.6925(1) 0.1044(1) . 1. 0
O10 O2- 2 i 0.0493(2) 0.4836(2) 0.1509(2) . 1. 0
O11 O2- 2 i 0.2184(2) 0.3229(2) 0.5862(2) . 1. 0
O12 O2- 2 i 0.4284(2) 0.6645(2) 0.5781(1) . 1. 0
O13 O2- 2 i 0.0926(2) 0.7459(1) 0.5285(1) . 1. 0
O14 O2- 2 i 0.3454(2) 0.1008(2) 0.2143(2) . 1. 0
O15 O2- 2 i 0.3542(2) 0.8100(2) 0.3284(1) . 1. 0
loop_
_atom_site_aniso_label
_atom_site_aniso_type_symbol
_atom_site_aniso_B_11
_atom_site_aniso_B_22
_atom_site_aniso_B_33
_atom_site_aniso_B_12
_atom_site_aniso_B_13
_atom_site_aniso_B_23
Ca1 Ca2+ 0.82 0.74 0.83 0.25 -.08 -.36
Ca2 Ca2+ 0.85 0.6 0.79 0.15 -.12 -.32
B1 B3+ 0.55 0.81 0.66 0.11 0.01 -.33
B2 B3+ 0.66 0.66 0.86 0.15 -.05 -.32
B3 B3+ 0.64 0.73 0.91 0.11 -.11 -.36
B4 B3+ 0.66 0.8 0.81 0.24 -.14 -.44
B5 B3+ 0.69 0.92 0.71 0.26 -.09 -.29
B6 B3+ 0.39 0.58 0.81 0.12 -.08 -.32
B7 B3+ 0.56 0.58 0.87 0.12 -.05 -.34
B8 B3+ 0.58 0.88 0.71 0.13 -.04 -.42
O1 O2- 0.53 0.64 1.16 0.19 -.22 -.32
O2 O2- 0.53 0.99 0.61 0.19 0.03 -.21
O3 O2- 0.65 1.16 1.1 0.21 0.06 -.63
O4 O2- 0.59 0.62 1.6 0.1 -.03 -.28
O5 O2- 0.82 0.79 0.71 0.33 -.02 -.41
O6 O2- 0.59 0.92 1.45 0.24 -.21 -.81
O7 O2- 0.49 0.66 1.25 0.03 0.1 -.38
O8 O2- 0.83 0.63 0.71 0.08 0.08 -.37
O9 O2- 0.61 0.56 1.13 0.19 -.21 -.35
O10 O2- 0.55 0.67 1.47 0.18 -.15 -.4
O11 O2- 0.92 1.09 1.11 -.1 -.02 -.49
O12 O2- 0.74 1.53 0.73 0.53 -.13 -.43
O13 O2- 0.62 1.36 0.67 0.34 -.08 -.4
O14 O2- 0.65 1.03 1.36 0.08 -.02 -.81
O15 O2- 0.78 1.16 0.62 0.47 -.02 -.24
#End of TTdata_131-ICSD
